Circuit: * H:\Desktop\tsd\4810\haruna_ab_tb.asc

Direct Newton iteration failed to find .op point.  (Use ".option noopiter" to skip.)
Starting Gmin stepping
Gmin = 10
Gmin = 1.07374
Gmin = 0.115292
Gmin = 0.0123794
Gmin = 0.00132923
Gmin = 0.000142725
Gmin = 1.5325e-005
Gmin = 1.6455e-006
Gmin = 1.76685e-007
Gmin = 1.89714e-008
Gmin = 2.03704e-009
Gmin = 2.18725e-010
Gmin = 2.34854e-011
Gmin = 2.52173e-012
Gmin = 2.70769e-013
Gmin = 0
Gmin stepping succeeded in finding the operating point.

Ignoring empty pin current: Ix(amp:tsd_in)
Ignoring empty pin current: Ix(amp:tsd_in)

Date: Mon Jan 11 16:44:52 2021
Total elapsed time: 0.124 seconds.

tnom = 27
temp = 27
method = modified trap
totiter = 5427
traniter = 4883
tranpoints = 2343
accept = 1903
rejected = 440
matrix size = 22
fillins = 16
solver = Normal
Thread vector: 9.4/7.9[2] 1.8/1.2[2] 1.5/1.2[2] 0.2/0.9[1]  2592/500
Matrix Compiler1: 2.87 KB object code size  0.4/0.2/[0.2]
Matrix Compiler2: 2.46 KB object code size  0.3/0.2/[0.2]

