Circuit: * Z:\home\seijirom\work\2021_9\tsd-and-BGR\haruna_ab_tb.asc

WARNING: Less than two connections to node X1:N002.  This node is used by R:X1:X2:1.
WARNING: Less than two connections to node X1:NC_02.  This node is used by R:X1:1.
WARNING: Less than two connections to node X1:NC_03.  This node is used by R:X1:2.
WARNING: Less than two connections to node X1:NC_04.  This node is used by R:X1:3.
WARNING: Less than two connections to node X1:NC_05.  This node is used by R:X1:4.
WARNING: Less than two connections to node X1:NC_06.  This node is used by R:X1:5.
Warning: Pd = 0 is less than W.
Warning: Ps = 0 is less than W.
Warning: Pd = 0 is less than W.
Warning: Ps = 0 is less than W.
Warning: Pd = 0 is less than W.
Warning: Ps = 0 is less than W.
Warning: Pd = 0 is less than W.
Warning: Ps = 0 is less than W.
Warning: Pd = 0 is less than W.
Warning: Ps = 0 is less than W.
Warning: Pd = 0 is less than W.
Warning: Ps = 0 is less than W.
Direct Newton iteration failed to find .op point.  (Use ".option noopiter" to skip.)
Starting Gmin stepping
Gmin = 10
Gmin = 1.07374
Gmin = 0.115292
Gmin = 0.0123794
Gmin = 0.00132923
Gmin = 0.000142725
Gmin = 1.5325e-005
Gmin = 1.6455e-006
Gmin = 1.76685e-007
Gmin = 1.89714e-008
Gmin = 2.03704e-009
vernier = 0.5
vernier = 0.25
vernier = 0.333333
Gmin = 1.11092e-009
vernier = 0.444444
Gmin = 4.39627e-010
vernier = 0.592592
vernier = 0.790123
Gmin = 1.00573e-010
vernier = 1
Gmin = 1.22814e-011
Gmin = 1.31871e-012
Gmin = 1.41595e-013
Gmin = 0
Gmin stepping succeeded in finding the operating point.


Date: Fri Sep 03 23:23:50 2021
Total elapsed time: 1.050 seconds.

tnom = 27
temp = 120
method = modified trap
totiter = 2933
traniter = 2082
tranpoints = 1042
accept = 1042
rejected = 0
matrix size = 78
fillins = 40
solver = Normal
Thread vector: 211.9/100.0[4] 37.9/26.2[4] 7.4/4.1[4] 1.1/4.7[1]  2592/500
Matrix Compiler1: 9.42 KB object code size  6.1/3.0/[1.9]
Matrix Compiler2: 8.39 KB object code size  2.9/3.5/[1.8]

