Circuit: * H:\Desktop\tsd\4810\tsd_ab_tb.asc

WARNING: Node X1:N001 is floating.
WARNING: Node X1:N002 is floating.

Warning: Pd = 0 is less than W.
Warning: Ps = 0 is less than W.
Warning: Pd = 0 is less than W.
Warning: Ps = 0 is less than W.
Warning: Pd = 0 is less than W.
Warning: Ps = 0 is less than W.
Warning: Pd = 0 is less than W.
Warning: Ps = 0 is less than W.
Warning: Pd = 0 is less than W.
Warning: Ps = 0 is less than W.
Warning: Pd = 0 is less than W.
Warning: Ps = 0 is less than W.
Direct Newton iteration failed to find .op point.  (Use ".option noopiter" to skip.)
Starting Gmin stepping
Gmin = 10
Gmin = 1.07374
Gmin = 0.115292
Gmin = 0.0123794
Gmin = 0.00132923
Gmin = 0.000142725
Gmin = 1.5325e-005
Gmin = 1.6455e-006
Gmin = 1.76685e-007
Gmin = 1.89714e-008
Gmin = 2.03704e-009
Gmin = 2.18725e-010
Gmin = 2.34854e-011
Gmin = 2.52173e-012
Gmin = 2.70769e-013
Gmin = 0
Gmin stepping succeeded in finding the operating point.


Date: Fri Feb 19 13:42:25 2021
Total elapsed time: 0.459 seconds.

tnom = 27
temp = 120
method = modified trap
totiter = 4698
traniter = 4192
tranpoints = 1959
accept = 1684
rejected = 275
matrix size = 72
fillins = 28
solver = Normal
Thread vector: 35.2/15.5[8] 10.5/3.0[8] 4.2/1.9[7] 0.2/1.2[1]  2592/500
Matrix Compiler1: 8.67 KB object code size  1.7/0.8/[0.7]
Matrix Compiler2: 7.94 KB object code size  0.7/0.9/[0.4]

