Circuit: * Z:\home\kS8fKNkox1qmg5bgBmnGFBCUG5rShn\ALBDATA\3020\using.asc

